 Generated by Multiwfn
  ChemPy            3D                             0

193194  0  0  1  0  0  0  0  0999 V2000
   -9.0296   -4.6773    2.6656 N   0  0  0  0  0  0  0  0  0  0  0  0
   -9.6170   -5.1147    3.9031 C   0  0  0  0  0  0  0  0  0  0  0  0
  -10.2588   -5.9976    3.7278 H   0  0  0  0  0  0  0  0  0  0  0  0
   -8.8356   -5.4078    4.6266 H   0  0  0  0  0  0  0  0  0  0  0  0
  -10.2608   -4.3436    4.4000 H   0  0  0  0  0  0  0  0  0  0  0  0
  -10.0434   -4.3848    1.6599 C   0  0  0  0  0  0  0  0  0  0  0  0
   -9.6073   -3.8320    0.8118 H   0  0  0  0  0  0  0  0  0  0  0  0
  -10.5138   -5.3209    1.3056 H   0  0  0  0  0  0  0  0  0  0  0  0
  -10.8479   -3.7268    2.0625 H   0  0  0  0  0  0  0  0  0  0  0  0
   -8.0804   -3.5701    2.8216 C   0  0  0  0  0  0  0  0  0  0  0  0
   -8.5998   -2.5933    2.7580 H   0  0  0  0  0  0  0  0  0  0  0  0
   -7.6370   -3.6359    3.8330 H   0  0  0  0  0  0  0  0  0  0  0  0
   -6.9688   -3.6243    1.7743 C   0  0  0  0  0  0  0  0  0  0  0  0
   -6.2884   -4.4676    1.9833 H   0  0  0  0  0  0  0  0  0  0  0  0
   -7.4209   -3.7878    0.7881 H   0  0  0  0  0  0  0  0  0  0  0  0
   -5.1148   -2.3137    0.6652 C   0  0  0  0  0  0  0  0  0  0  0  0
   -5.4688   -2.9624   -0.1360 H   0  0  0  0  0  0  0  0  0  0  0  0
   -4.6077   -3.3104    0.1793 O   0  0  0  0  0  0  0  0  0  0  0  0
   -4.5198   -3.1951   -0.7697 H   0  0  0  0  0  0  0  0  0  0  0  0
   -4.6068   -1.0746    0.4573 O   0  0  0  0  0  0  0  0  0  0  0  0
   -3.9030   -0.8881   -0.7862 C   0  0  0  0  0  0  0  0  0  0  0  0
   -2.4109   -1.0309   -0.4438 C   0  0  0  0  0  0  0  0  0  0  0  0
   -1.8637   -0.1289   -0.7180 H   0  0  0  0  0  0  0  0  0  0  0  0
   -1.6395   -0.0878   -0.2395 O   0  0  0  0  0  0  0  0  0  0  0  0
   -1.4230   -0.0473    0.6949 H   0  0  0  0  0  0  0  0  0  0  0  0
   -4.3338    0.4256   -1.3988 C   0  0  0  0  0  0  0  0  0  0  0  0
   -5.4267    0.3849   -1.3357 H   0  0  0  0  0  0  0  0  0  0  0  0
   -3.9626    1.2574   -0.7904 H   0  0  0  0  0  0  0  0  0  0  0  0
   -3.9224    0.6013   -2.8739 C   0  0  0  0  0  0  0  0  0  0  0  0
   -3.1353   -0.1257   -3.1514 H   0  0  0  0  0  0  0  0  0  0  0  0
   -4.7884    0.3626   -3.5104 H   0  0  0  0  0  0  0  0  0  0  0  0
   -3.3951    2.0142   -3.1699 C   0  0  0  0  0  0  0  0  0  0  0  0
   -4.0800    2.7621   -2.7339 H   0  0  0  0  0  0  0  0  0  0  0  0
   -3.3779    2.2021   -4.2586 H   0  0  0  0  0  0  0  0  0  0  0  0
   -1.9954    2.1674   -2.5742 C   0  0  0  0  0  0  0  0  0  0  0  0
   -2.0006    1.7106   -1.5755 H   0  0  0  0  0  0  0  0  0  0  0  0
   -2.0229   -2.3224   -0.3257 N   0  0  0  0  0  0  0  0  0  0  0  0
   -2.7957   -3.0005   -0.3089 H   0  0  0  0  0  0  0  0  0  0  0  0
    0.3832   -2.5566   -0.9030 C   0  0  0  0  0  0  0  0  0  0  0  0
    0.0681   -3.1166   -1.8007 H   0  0  0  0  0  0  0  0  0  0  0  0
    0.4521   -1.4978   -1.2018 H   0  0  0  0  0  0  0  0  0  0  0  0
    1.7436   -3.0653   -0.4295 C   0  0  0  0  0  0  0  0  0  0  0  0
    1.6601   -4.1350   -0.1589 H   0  0  0  0  0  0  0  0  0  0  0  0
    2.0335   -2.5438    0.5021 H   0  0  0  0  0  0  0  0  0  0  0  0
    2.8548   -2.8943   -1.4660 C   0  0  0  0  0  0  0  0  0  0  0  0
    2.5135   -3.2988   -2.4362 H   0  0  0  0  0  0  0  0  0  0  0  0
    3.0280   -1.8170   -1.6379 H   0  0  0  0  0  0  0  0  0  0  0  0
    4.1709   -3.5707   -1.0796 C   0  0  0  0  0  0  0  0  0  0  0  0
    4.0061   -4.6600   -0.9847 H   0  0  0  0  0  0  0  0  0  0  0  0
    4.4816   -3.2281   -0.0764 H   0  0  0  0  0  0  0  0  0  0  0  0
    5.3054   -3.3123   -2.0699 C   0  0  0  0  0  0  0  0  0  0  0  0
    4.9807   -3.6046   -3.0854 H   0  0  0  0  0  0  0  0  0  0  0  0
    5.4965   -2.2256   -2.1223 H   0  0  0  0  0  0  0  0  0  0  0  0
    6.6078   -4.0382   -1.7325 C   0  0  0  0  0  0  0  0  0  0  0  0
    6.9055   -3.8097   -0.6944 H   0  0  0  0  0  0  0  0  0  0  0  0
    6.4395   -5.1302   -1.7629 H   0  0  0  0  0  0  0  0  0  0  0  0
    7.7589   -3.6699   -2.6790 C   0  0  0  0  0  0  0  0  0  0  0  0
    7.4155   -3.8310   -3.7191 H   0  0  0  0  0  0  0  0  0  0  0  0
    7.9668   -2.5911   -2.5984 H   0  0  0  0  0  0  0  0  0  0  0  0
   -0.7107   -2.6822    0.1625 C   0  0  0  0  0  0  0  0  0  0  0  0
   -0.7595   -3.7204    0.5299 H   0  0  0  0  0  0  0  0  0  0  0  0
   -0.4461   -2.0382    1.0209 H   0  0  0  0  0  0  0  0  0  0  0  0
    9.0075   -4.4755   -2.4615 C   0  0  0  0  0  0  0  0  0  0  0  0
    9.2959   -3.4396   -2.2826 H   0  0  0  0  0  0  0  0  0  0  0  0
    8.8692   -5.5633   -2.5150 H   0  0  0  0  0  0  0  0  0  0  0  0
   10.2480   -4.0221   -2.2288 C   0  0  0  0  0  0  0  0  0  0  0  0
    9.3551   -3.4224   -2.4060 H   0  0  0  0  0  0  0  0  0  0  0  0
   11.0472   -4.7664   -2.1166 H   0  0  0  0  0  0  0  0  0  0  0  0
   10.6877   -2.5900   -2.0931 C   0  0  0  0  0  0  0  0  0  0  0  0
   11.1394   -2.2438   -3.0433 H   0  0  0  0  0  0  0  0  0  0  0  0
    9.8174   -1.9368   -1.9212 H   0  0  0  0  0  0  0  0  0  0  0  0
   11.7051   -2.3872   -0.9639 C   0  0  0  0  0  0  0  0  0  0  0  0
   12.6341   -2.9375   -1.2020 H   0  0  0  0  0  0  0  0  0  0  0  0
   11.3146   -2.8455   -0.0408 H   0  0  0  0  0  0  0  0  0  0  0  0
   12.0307   -0.9193   -0.6955 C   0  0  0  0  0  0  0  0  0  0  0  0
   12.4637   -0.4622   -1.6045 H   0  0  0  0  0  0  0  0  0  0  0  0
   11.0896   -0.3721   -0.5050 H   0  0  0  0  0  0  0  0  0  0  0  0
   12.9772   -0.7087    0.4859 C   0  0  0  0  0  0  0  0  0  0  0  0
   12.5351   -1.1708    1.3879 H   0  0  0  0  0  0  0  0  0  0  0  0
   13.9222   -1.2533    0.3030 H   0  0  0  0  0  0  0  0  0  0  0  0
   13.2853    0.7608    0.7729 C   0  0  0  0  0  0  0  0  0  0  0  0
   13.7306    1.2239   -0.1271 H   0  0  0  0  0  0  0  0  0  0  0  0
   12.3379    1.3024    0.9494 H   0  0  0  0  0  0  0  0  0  0  0  0
   14.2175    0.9743    1.9654 C   0  0  0  0  0  0  0  0  0  0  0  0
   13.7713    0.5101    2.8645 H   0  0  0  0  0  0  0  0  0  0  0  0
   15.1663    0.4332    1.7900 H   0  0  0  0  0  0  0  0  0  0  0  0
   14.5214    2.4449    2.2560 C   0  0  0  0  0  0  0  0  0  0  0  0
   14.9663    2.9074    1.3562 H   0  0  0  0  0  0  0  0  0  0  0  0
   13.5720    2.9826    2.4300 H   0  0  0  0  0  0  0  0  0  0  0  0
   15.4519    2.6484    3.4507 C   0  0  0  0  0  0  0  0  0  0  0  0
   16.4226    2.1497    3.2899 H   0  0  0  0  0  0  0  0  0  0  0  0
   15.6514    3.7162    3.6352 H   0  0  0  0  0  0  0  0  0  0  0  0
   15.0155    2.2267    4.3716 H   0  0  0  0  0  0  0  0  0  0  0  0
   -0.3598    3.5222   -1.4466 O   0  0  0  0  0  0  0  0  0  0  0  0
    0.7665    2.9025   -1.8217 C   0  0  0  0  0  0  0  0  0  0  0  0
    1.2591    3.0016   -2.7890 H   0  0  0  0  0  0  0  0  0  0  0  0
    1.1038    2.7457   -2.9728 O   0  0  0  0  0  0  0  0  0  0  0  0
    1.0361    3.5799   -3.4431 H   0  0  0  0  0  0  0  0  0  0  0  0
    1.5287    2.3753   -0.6103 C   0  0  0  0  0  0  0  0  0  0  0  0
    0.8618    1.5908   -0.2053 H   0  0  0  0  0  0  0  0  0  0  0  0
    2.8464    1.7150   -1.0285 C   0  0  0  0  0  0  0  0  0  0  0  0
    3.5776    2.4955   -1.3005 H   0  0  0  0  0  0  0  0  0  0  0  0
    2.6767    1.1419   -1.9526 H   0  0  0  0  0  0  0  0  0  0  0  0
    3.4418    0.8039    0.0445 C   0  0  0  0  0  0  0  0  0  0  0  0
    3.4224    1.3064    1.0269 H   0  0  0  0  0  0  0  0  0  0  0  0
    2.8049   -0.0909    0.1609 H   0  0  0  0  0  0  0  0  0  0  0  0
    4.8789    0.3808   -0.2515 C   0  0  0  0  0  0  0  0  0  0  0  0
    5.4997    1.2842   -0.3946 H   0  0  0  0  0  0  0  0  0  0  0  0
    4.9133   -0.1614   -1.2136 H   0  0  0  0  0  0  0  0  0  0  0  0
    5.4963   -0.4845    0.8445 C   0  0  0  0  0  0  0  0  0  0  0  0
    5.4641    0.0649    1.8037 H   0  0  0  0  0  0  0  0  0  0  0  0
    4.8697   -1.3811    0.9950 H   0  0  0  0  0  0  0  0  0  0  0  0
    6.9335   -0.9157    0.5580 C   0  0  0  0  0  0  0  0  0  0  0  0
    7.5759   -0.0194    0.4739 H   0  0  0  0  0  0  0  0  0  0  0  0
    6.9762   -1.4073   -0.4296 H   0  0  0  0  0  0  0  0  0  0  0  0
    7.5117   -1.8594    1.6114 C   0  0  0  0  0  0  0  0  0  0  0  0
    7.4845   -1.3668    2.6011 H   0  0  0  0  0  0  0  0  0  0  0  0
    6.8573   -2.7463    1.7014 H   0  0  0  0  0  0  0  0  0  0  0  0
    8.9373   -2.3164    1.3062 C   0  0  0  0  0  0  0  0  0  0  0  0
    8.9493   -2.8263    0.3279 H   0  0  0  0  0  0  0  0  0  0  0  0
    9.5849   -1.4287    1.1912 H   0  0  0  0  0  0  0  0  0  0  0  0
    9.5237   -3.2445    2.3677 C   0  0  0  0  0  0  0  0  0  0  0  0
    9.5591   -2.7530    3.3545 H   0  0  0  0  0  0  0  0  0  0  0  0
    8.9151   -4.1577    2.4763 H   0  0  0  0  0  0  0  0  0  0  0  0
   -1.2788    1.5782   -3.1701 H   0  0  0  0  0  0  0  0  0  0  0  0
   -1.4672    3.5808   -2.3960 C   0  0  0  0  0  0  0  0  0  0  0  0
   -2.2078    4.2175   -1.8952 H   0  0  0  0  0  0  0  0  0  0  0  0
   -1.1102    4.0415   -3.3294 H   0  0  0  0  0  0  0  0  0  0  0  0
   -4.2147   -1.7006   -1.4561 H   0  0  0  0  0  0  0  0  0  0  0  0
   -6.2168   -2.3057    1.6817 C   0  0  0  0  0  0  0  0  0  0  0  0
   -5.7711   -2.0001    2.6495 H   0  0  0  0  0  0  0  0  0  0  0  0
   10.5493   -3.5575    2.1130 H   0  0  0  0  0  0  0  0  0  0  0  0
   -6.9335   -1.5350    1.3736 H   0  0  0  0  0  0  0  0  0  0  0  0
   -7.8931    1.0259   -0.2959 C   0  0  0  0  0  0  0  0  0  0  0  0
   -7.4753    2.3584   -0.9510 C   0  0  0  0  0  0  0  0  0  0  0  0
   -7.2340    3.2493    0.2697 C   0  0  0  0  0  0  0  0  0  0  0  0
   -8.0383    2.7608    1.3056 O   0  0  0  0  0  0  0  0  0  0  0  0
   -8.7055    1.5315    0.9114 C   0  0  0  0  0  0  0  0  0  0  0  0
   -8.5565    2.8237   -1.7184 O   0  0  0  0  0  0  0  0  0  0  0  0
   -8.6069    0.2766   -1.2117 O   0  0  0  0  0  0  0  0  0  0  0  0
   -6.5594    2.2671   -1.5601 H   0  0  0  0  0  0  0  0  0  0  0  0
   -7.0019    0.4764    0.0564 H   0  0  0  0  0  0  0  0  0  0  0  0
   -7.4399    4.3059    0.0556 H   0  0  0  0  0  0  0  0  0  0  0  0
   -8.7930    0.6078    2.1273 C   0  0  0  0  0  0  0  0  0  0  0  0
   -9.7291    1.7674    0.5739 H   0  0  0  0  0  0  0  0  0  0  0  0
   -8.2573   -1.4696   -1.2695 P   0  0  0  0  0  0  0  0  0  0  0  0
   -8.8516   -1.9114    0.1110 O   0  0  0  0  0  0  0  0  0  0  0  0
   -8.9848   -1.9219   -2.5041 O   0  0  0  0  0  0  0  0  0  0  0  0
   -9.2255   -2.8468   -2.4136 H   0  0  0  0  0  0  0  0  0  0  0  0
   -9.6869   -0.4356    1.9688 O   0  0  0  0  0  0  0  0  0  0  0  0
   -6.7150   -1.5054   -1.2407 O   0  0  0  0  0  0  0  0  0  0  0  0
   -6.3834   -1.7365   -2.1114 H   0  0  0  0  0  0  0  0  0  0  0  0
   -8.9825    1.9805   -1.9891 H   0  0  0  0  0  0  0  0  0  0  0  0
   -7.7583    0.2577    2.3641 H   0  0  0  0  0  0  0  0  0  0  0  0
   -9.1072    1.2322    2.9886 H   0  0  0  0  0  0  0  0  0  0  0  0
   -9.3867   -1.0251    1.1686 H   0  0  0  0  0  0  0  0  0  0  0  0
   -5.3778    2.2327    1.5425 C   0  0  0  0  0  0  0  0  0  0  0  0
   -4.4249    1.9687    2.0011 H   0  0  0  0  0  0  0  0  0  0  0  0
   -4.8722    4.0116   -0.0199 C   0  0  0  0  0  0  0  0  0  0  0  0
   -4.5274    5.0301   -0.1986 H   0  0  0  0  0  0  0  0  0  0  0  0
   -4.0491    2.0298    1.7819 C   0  0  0  0  0  0  0  0  0  0  0  0
   -3.7838    2.2895    2.8068 H   0  0  0  0  0  0  0  0  0  0  0  0
   -6.1643    1.6542    2.0239 H   0  0  0  0  0  0  0  0  0  0  0  0
   -3.1388    2.8236    1.0201 C   0  0  0  0  0  0  0  0  0  0  0  0
   -4.1674    2.8759    1.3769 H   0  0  0  0  0  0  0  0  0  0  0  0
   -3.7118    1.2359    2.4449 H   0  0  0  0  0  0  0  0  0  0  0  0
   -5.7978    3.1738    0.6690 N   0  0  0  0  0  0  0  0  0  0  0  0
   -3.5411    3.7851    0.2081 N   0  0  0  0  0  0  0  0  0  0  0  0
   -3.1247    3.5931   -0.6919 H   0  0  0  0  0  0  0  0  0  0  0  0
   -1.7871    2.5845    1.1124 N   0  0  0  0  0  0  0  0  0  0  0  0
   -1.2828    3.0299    0.3471 H   0  0  0  0  0  0  0  0  0  0  0  0
   -1.5701    1.5890    1.1546 H   0  0  0  0  0  0  0  0  0  0  0  0
   -5.2943    4.8540   -0.8010 O   0  0  0  0  0  0  0  0  0  0  0  0
   -5.4971    4.4381   -1.6421 H   0  0  0  0  0  0  0  0  0  0  0  0
    1.6994    3.4548    0.4780 C   0  0  0  0  0  0  0  0  0  0  0  0
    2.2590    3.0053    1.3138 H   0  0  0  0  0  0  0  0  0  0  0  0
    0.7147    3.7054    0.8939 H   0  0  0  0  0  0  0  0  0  0  0  0
    2.4112    4.7376   -0.0061 C   0  0  0  0  0  0  0  0  0  0  0  0
    1.6723    5.5496   -0.0894 H   0  0  0  0  0  0  0  0  0  0  0  0
    2.8014    4.5913   -1.0290 H   0  0  0  0  0  0  0  0  0  0  0  0
    3.5707    5.1875    0.8922 C   0  0  0  0  0  0  0  0  0  0  0  0
    3.2153    5.2657    1.9367 H   0  0  0  0  0  0  0  0  0  0  0  0
    3.8902    6.2055    0.6041 H   0  0  0  0  0  0  0  0  0  0  0  0
    4.7800    4.2518    0.8361 C   0  0  0  0  0  0  0  0  0  0  0  0
    4.4593    3.2227    1.0654 H   0  0  0  0  0  0  0  0  0  0  0  0
    5.1608    4.2173   -0.2013 H   0  0  0  0  0  0  0  0  0  0  0  0
    5.9231    4.6225    1.7803 C   0  0  0  0  0  0  0  0  0  0  0  0
    6.2777    5.6442    1.5510 H   0  0  0  0  0  0  0  0  0  0  0  0
    5.5390    4.6634    2.8158 H   0  0  0  0  0  0  0  0  0  0  0  0
    7.0929    3.6405    1.7070 C   0  0  0  0  0  0  0  0  0  0  0  0
    7.9051    3.9132    2.4005 H   0  0  0  0  0  0  0  0  0  0  0  0
    6.7667    2.6169    1.9578 H   0  0  0  0  0  0  0  0  0  0  0  0
    7.5185    3.6042    0.6900 H   0  0  0  0  0  0  0  0  0  0  0  0
  1  2  1  0  0  0  0
  1  6  1  0  0  0  0
  1 10  1  0  0  0  0
  2  3  1  0  0  0  0
  2  4  1  0  0  0  0
  2  5  1  0  0  0  0
  6  7  1  0  0  0  0
  6  8  1  0  0  0  0
  6  9  1  0  0  0  0
 10 11  1  0  0  0  0
 10 12  1  0  0  0  0
 10 13  1  0  0  0  0
 13 14  1  0  0  0  0
 13 15  1  0  0  0  0
 13130  1  0  0  0  0
 16 17  1  0  0  0  0
 16 18  1  0  0  0  0
 16 20  1  0  0  0  0
 16130  1  0  0  0  0
 18 19  1  0  0  0  0
 20 21  1  0  0  0  0
 21 22  1  0  0  0  0
 21 26  1  0  0  0  0
 21129  1  0  0  0  0
 22 23  1  0  0  0  0
 22 24  1  0  0  0  0
 22 37  1  0  0  0  0
 24 25  1  0  0  0  0
 26 27  1  0  0  0  0
 26 28  1  0  0  0  0
 26 29  1  0  0  0  0
 29 30  1  0  0  0  0
 29 31  1  0  0  0  0
 29 32  1  0  0  0  0
 32 33  1  0  0  0  0
 32 34  1  0  0  0  0
 32 35  1  0  0  0  0
 35 36  1  0  0  0  0
 35125  1  0  0  0  0
 35126  1  0  0  0  0
 37 38  1  0  0  0  0
 37 60  1  0  0  0  0
 39 40  1  0  0  0  0
 39 41  1  0  0  0  0
 39 42  1  0  0  0  0
 39 60  1  0  0  0  0
 42 43  1  0  0  0  0
 42 44  1  0  0  0  0
 42 45  1  0  0  0  0
 45 46  1  0  0  0  0
 45 47  1  0  0  0  0
 45 48  1  0  0  0  0
 48 49  1  0  0  0  0
 48 50  1  0  0  0  0
 48 51  1  0  0  0  0
 51 52  1  0  0  0  0
 51 53  1  0  0  0  0
 51 54  1  0  0  0  0
 54 55  1  0  0  0  0
 54 56  1  0  0  0  0
 54 57  1  0  0  0  0
 57 58  1  0  0  0  0
 57 59  1  0  0  0  0
 57 63  1  0  0  0  0
 60 61  1  0  0  0  0
 60 62  1  0  0  0  0
 63 64  1  0  0  0  0
 63 65  1  0  0  0  0
 63 66  1  0  0  0  0
 66 67  1  0  0  0  0
 66 68  1  0  0  0  0
 66 69  1  0  0  0  0
 69 70  1  0  0  0  0
 69 71  1  0  0  0  0
 69 72  1  0  0  0  0
 72 73  1  0  0  0  0
 72 74  1  0  0  0  0
 72 75  1  0  0  0  0
 75 76  1  0  0  0  0
 75 77  1  0  0  0  0
 75 78  1  0  0  0  0
 78 79  1  0  0  0  0
 78 80  1  0  0  0  0
 78 81  1  0  0  0  0
 81 82  1  0  0  0  0
 81 83  1  0  0  0  0
 81 84  1  0  0  0  0
 84 85  1  0  0  0  0
 84 86  1  0  0  0  0
 84 87  1  0  0  0  0
 87 88  1  0  0  0  0
 87 89  1  0  0  0  0
 87 90  1  0  0  0  0
 90 91  1  0  0  0  0
 90 92  1  0  0  0  0
 90 93  1  0  0  0  0
 94 95  1  0  0  0  0
 94126  1  0  0  0  0
 95 96  1  0  0  0  0
 95 97  1  0  0  0  0
 95 99  1  0  0  0  0
 97 98  1  0  0  0  0
 99100  1  0  0  0  0
 99101  1  0  0  0  0
 99175  1  0  0  0  0
101102  1  0  0  0  0
101103  1  0  0  0  0
101104  1  0  0  0  0
104105  1  0  0  0  0
104106  1  0  0  0  0
104107  1  0  0  0  0
107108  1  0  0  0  0
107109  1  0  0  0  0
107110  1  0  0  0  0
110111  1  0  0  0  0
110112  1  0  0  0  0
110113  1  0  0  0  0
113114  1  0  0  0  0
113115  1  0  0  0  0
113116  1  0  0  0  0
116117  1  0  0  0  0
116118  1  0  0  0  0
116119  1  0  0  0  0
119120  1  0  0  0  0
119121  1  0  0  0  0
119122  1  0  0  0  0
122123  1  0  0  0  0
122124  1  0  0  0  0
122132  1  0  0  0  0
126127  1  0  0  0  0
126128  1  0  0  0  0
130131  1  0  0  0  0
130133  1  0  0  0  0
134135  1  0  0  0  0
134138  1  0  0  0  0
134140  1  0  0  0  0
134142  1  0  0  0  0
135136  1  0  0  0  0
135139  1  0  0  0  0
135141  1  0  0  0  0
136137  1  0  0  0  0
136143  1  0  0  0  0
136167  1  0  0  0  0
137138  1  0  0  0  0
138144  1  0  0  0  0
138145  1  0  0  0  0
139153  1  0  0  0  0
140146  1  0  0  0  0
144150  1  0  0  0  0
144154  1  0  0  0  0
144155  1  0  0  0  0
146147  1  0  0  0  0
146148  1  0  0  0  0
146151  1  0  0  0  0
147156  1  0  0  0  0
148149  1  0  0  0  0
150156  1  0  0  0  0
151152  1  0  0  0  0
157158  1  0  0  0  0
157161  1  0  0  0  0
157163  1  0  0  0  0
157167  1  0  0  0  0
159160  1  0  0  0  0
159167  1  0  0  0  0
159168  1  0  0  0  0
159173  1  0  0  0  0
161162  1  0  0  0  0
161164  1  0  0  0  0
161166  1  0  0  0  0
164165  1  0  0  0  0
164168  1  0  0  0  0
164170  1  0  0  0  0
168169  1  0  0  0  0
170171  1  0  0  0  0
170172  1  0  0  0  0
173174  1  0  0  0  0
175176  1  0  0  0  0
175177  1  0  0  0  0
175178  1  0  0  0  0
178179  1  0  0  0  0
178180  1  0  0  0  0
178181  1  0  0  0  0
181182  1  0  0  0  0
181183  1  0  0  0  0
181184  1  0  0  0  0
184185  1  0  0  0  0
184186  1  0  0  0  0
184187  1  0  0  0  0
187188  1  0  0  0  0
187189  1  0  0  0  0
187190  1  0  0  0  0
190191  1  0  0  0  0
190192  1  0  0  0  0
190193  1  0  0  0  0
M  END
$$$$
